7
Properties=species:S:1:pos:R:3:forces:R:3:energies:R:1 Coordinates=T from=T ORCA-job=T orca=T energy=1.4804461476399047 dipole="0.2775230477880261 -0.2821033231453679 -0.1396983983989239" free_energy=1.4804461476399047 pbc="F F F"
C       -2.35708537       2.86068824      -0.00467844       0.01870446       0.00808916       0.00265936      -0.27720072
C       -1.28414286       2.83997906      -0.06822200       0.02739814      -0.02835482      -0.01410015      -0.26597875
O       -0.60404038       3.72405402       0.28663838      -0.04417398       0.02384352       0.01276507       0.24204919
H       -3.01242913       3.78578338       0.43508473       0.01014838       0.00303308       0.00082724       0.44908866
H       -3.24975463       2.10092318      -0.29306430       0.02595913       0.02715271       0.01061251       0.44963597
H       -0.64862075       1.88069006      -0.52182331       0.01980457      -0.00265385      -0.00217552       0.44652505
H        0.59587416       3.60068010       0.16606496      -0.05784069      -0.03110979      -0.01058850       0.43632675
