7
Properties=species:S:1:pos:R:3:forces:R:3 Coordinates=T from=T ORCA-job=T orca=T energy=-1.296931017612708 dipole="0.2775230477880261 -0.2821033231453679 -0.1396983983989239" free_energy=-1.296931017612708 pbc="F F F"
C       -2.53100106       2.87170721       0.00897964       0.00457882       0.00961152       0.00448927
C       -1.20966251       2.74170097      -0.11521720      -0.00340651      -0.01278513      -0.00571417
O       -0.44068598       3.79115475       0.30748108      -0.02468731       0.03201845       0.01474805
H       -2.99612534       3.75344374       0.42004434      -0.00819556       0.01823209       0.00825301
H       -3.23519961       2.11666692      -0.28688958       0.00023881      -0.01391628      -0.00582571
H       -0.66367469       1.89885009      -0.51308314       0.00288471      -0.03177123      -0.01467701
H        0.51615023       3.61927436       0.17868488       0.02858714      -0.00138934      -0.00127343
