7
Properties=species:S:1:pos:R:3:forces:R:3 energy=-1.783325789936829 dipole="-0.5519231805596828 -0.3224930240237453 -0.05433872128482733" free_energy=-1.783325789936829 pbc="F F F"
C       -2.31947996       3.29617049       0.19531998      -0.01482619       0.00634755       0.00295648
C       -0.91461686       2.83405292      -0.05082946      -0.03215596       0.00974370       0.00530967
O        0.03599347       3.56056232       0.09437166      -0.01092216       0.00286528       0.00167281
H       -2.93291848       3.20945629      -0.71204584       0.00489034      -0.01036766       0.02078428
H       -2.80215324       2.70309099       0.98429348       0.00117469       0.00257006      -0.02395637
H       -0.78213339       1.79299390      -0.37321376       0.01084757       0.00718201       0.00147173
H       -2.36019051       4.34987310       0.51300396       0.04099178      -0.01834089      -0.00823857
